Version 4
SHEET 1 1512 680
WIRE 208 144 208 112
WIRE 352 144 352 96
WIRE 208 256 208 224
WIRE 208 256 80 256
WIRE 352 256 352 224
WIRE 352 256 208 256
WIRE 80 272 80 256
WIRE 208 288 208 256
WIRE 624 320 624 272
WIRE 640 320 624 320
WIRE 736 320 640 320
WIRE 1104 320 992 320
WIRE 1216 320 1216 272
WIRE 1216 320 1104 320
WIRE 1104 384 1104 320
WIRE 640 400 640 320
WIRE 208 416 208 368
WIRE 640 528 640 464
WIRE 864 528 864 416
WIRE 864 528 640 528
WIRE 1104 528 1104 448
WIRE 1104 528 864 528
WIRE 864 592 864 528
FLAG 208 112 +9_VDD
FLAG 80 272 0
FLAG 208 416 -9_VSS
FLAG 352 96 +6_VDrive
FLAG 624 272 +9_VDD
FLAG 864 592 0
FLAG 1216 272 +5V_Arduino_Supply
SYMBOL Misc\\battery 208 272 R0
WINDOW 123 0 0 Left 2
WINDOW 39 0 0 Left 2
SYMATTR InstName V1
SYMATTR Value 9
SYMBOL Misc\\battery 208 128 R0
WINDOW 123 0 0 Left 2
WINDOW 39 0 0 Left 2
SYMATTR InstName V2
SYMATTR Value 9
SYMBOL Misc\\battery 352 128 R0
WINDOW 123 0 0 Left 2
WINDOW 39 0 0 Left 2
SYMATTR InstName V3
SYMATTR Value 6
SYMBOL 7805 864 320 R0
SYMATTR InstName U1
SYMBOL cap 624 400 R0
SYMATTR InstName C1
SYMATTR Value 0.33µ
SYMBOL cap 1088 384 R0
SYMATTR InstName C2
SYMATTR Value 0.1µ
